/*--------------------------------------------------------------------------*\
| =========                 |                                                |
| \\      /  F ield         | FILE AUTO-GENERATED BY Simphony nfluid package | 
|  \\    /   O peration     | Must be revised and adjusted if needed         |
|   \\  /    A nd           | Author: Simphony                               | 
|    \\/     M anipulation  |                                                |
\*---------------------------------------------------------------------------*/

FoamFile
{
    version   2.0;
    format    ascii;
    class     dictionary;
    location  "system";
    object    meshDict;
}

// ************************************************************************* //

applicationClass    ;

startFrom           latestTime;

startTime           0;

stopAt              endTime;

endTime             500;

deltaT              1;

writeControl        timeStep;

writeInterval       100;

cycleWrite          0;

writeFormat         ascii;

writeCompression    compressed;

timeFormat          general;

timePrecision       6;

runTimeModifiable   yes;

nCorrectors         2;

nNonOrthogonalCorrectors 0;


// ************************************************************************* //
