/*--------------------------------------------------------------------------*\
| =========                 |                                                |
| \\      /  F ield         | FILE AUTO-GENERATED BY Simphony nfluid package | 
|  \\    /   O peration     | Must be revised and adjusted if needed         |
|   \\  /    A nd           | Author: Simphony                               | 
|    \\/     M anipulation  |                                                |
\*---------------------------------------------------------------------------*/

FoamFile
{
    version   2.0;
    format    ascii;
    class     dictionary;
    object    meshDict;
}

// * * * * * * * * * * * * * * * * * * * * * * * * * * * * * * * * * * * * * //

surfaceFile "$$$STL_FILE_NAME$$$";

maxCellSize 0.2;

boundaryCellSize 0.1;

minCellSize 0.1;

// ************************************************************************* //
